* Spice description of cronometro_cougar
* Spice driver version -1218054087
* Date ( dd/mm/yyyy hh:mm:ss ): 22/04/2018 at  2:20:08

* INTERF ctrl dmin[0] dmin[1] dmin[2] dseg[0] dseg[1] dseg[2] rlj rst 
* INTERF umin[0] umin[1] umin[2] umin[3] useg[0] useg[1] useg[2] useg[3] vdd 
* INTERF vss 


.subckt cronometro_cougar 133 530 525 524 149 187 185 515 488 521 506 503 492 
+ 27 22 25 20 534 487 
* NET 11 = memuseg_3_ins.sff_s
* NET 13 = memuseg_3_ins.y
* NET 14 = memuseg_3_ins.sff_m
* NET 17 = memuseg_3_ins.u
* NET 18 = memuseg_3_ins.ckr
* NET 19 = memuseg_3_ins.nckr
* NET 20 = useg[3]
* NET 22 = useg[1]
* NET 25 = useg[2]
* NET 26 = aux19
* NET 27 = useg[0]
* NET 29 = no2_x1_9_sig
* NET 30 = no2_x1_10_sig
* NET 36 = maquina_0_ins.sff_m
* NET 37 = maquina_0_ins.sff_s
* NET 38 = maquina_0_ins.y
* NET 39 = oa2a22_x2_4_sig
* NET 41 = maquina_0_ins.u
* NET 42 = maquina_0_ins.ckr
* NET 43 = maquina_0_ins.nckr
* NET 57 = a3_x2_3_sig
* NET 58 = oa22_x2_4_sig
* NET 60 = oa22_x2_5_sig
* NET 69 = nao22_x1_4_sig
* NET 72 = nao22_x1_5_sig
* NET 74 = a2_x2_6_sig
* NET 82 = not_aux21
* NET 86 = not_aux18
* NET 89 = not_maquina[0]
* NET 90 = no2_x1_7_sig
* NET 91 = maquina[0]
* NET 92 = no2_x1_8_sig
* NET 96 = maquina[1]
* NET 99 = maquina_1_ins.y
* NET 101 = maquina_1_ins.sff_m
* NET 102 = maquina_1_ins.sff_s
* NET 104 = oa2a22_x2_3_sig
* NET 105 = maquina_1_ins.u
* NET 107 = maquina_1_ins.nckr
* NET 108 = maquina_1_ins.ckr
* NET 112 = no3_x1_5_sig
* NET 113 = aux23
* NET 114 = a3_x2_2_sig
* NET 118 = mbk_buf_not_aux0
* NET 121 = memuseg_1_ins.y
* NET 122 = memuseg_1_ins.sff_m
* NET 124 = memuseg_1_ins.sff_s
* NET 125 = oa22_x2_3_sig
* NET 126 = memuseg_1_ins.u
* NET 128 = memuseg_1_ins.ckr
* NET 129 = memuseg_1_ins.nckr
* NET 130 = aux24
* NET 133 = ctrl
* NET 134 = not_ctrl
* NET 135 = not_aux20
* NET 136 = not_aux22
* NET 139 = memuseg_0_ins.y
* NET 140 = memuseg_0_ins.sff_s
* NET 141 = memuseg_0_ins.sff_m
* NET 143 = nao22_x1_3_sig
* NET 144 = memuseg_0_ins.nckr
* NET 145 = memuseg_0_ins.u
* NET 147 = memuseg_0_ins.ckr
* NET 149 = dseg[0]
* NET 157 = na2_x1_sig
* NET 158 = not_aux23
* NET 162 = not_aux19
* NET 166 = o3_x2_4_sig
* NET 167 = o3_x2_3_sig
* NET 168 = na2_x1_2_sig
* NET 171 = memuseg[2]
* NET 173 = memuseg_2_ins.y
* NET 175 = memuseg_2_ins.sff_s
* NET 177 = na3_x1_sig
* NET 178 = memuseg_2_ins.ckr
* NET 179 = memuseg_2_ins.u
* NET 180 = memuseg_2_ins.sff_m
* NET 182 = memuseg[0]
* NET 183 = memuseg_2_ins.nckr
* NET 185 = dseg[2]
* NET 187 = dseg[1]
* NET 191 = inv_x2_2_sig
* NET 192 = not_memuseg[1]
* NET 197 = no3_x1_4_sig
* NET 201 = memuseg[3]
* NET 202 = no2_x1_5_sig
* NET 203 = not_aux0
* NET 204 = mbk_buf_memuseg[2]
* NET 205 = memuseg[1]
* NET 206 = not_memuseg[3]
* NET 210 = mbk_buf_not_memuseg[2]
* NET 211 = not_memuseg[2]
* NET 216 = memdseg_2_ins.ckr
* NET 217 = memdseg_2_ins.u
* NET 219 = memdseg_2_ins.nckr
* NET 220 = oa2a22_x2_2_sig
* NET 232 = mx2_x2_sig
* NET 233 = memdseg_1_ins.u
* NET 234 = memdseg_1_ins.ckr
* NET 235 = memdseg_1_ins.nckr
* NET 245 = memdseg_2_ins.sff_s
* NET 246 = memdseg_2_ins.y
* NET 247 = memdseg_2_ins.sff_m
* NET 257 = memdseg_1_ins.sff_s
* NET 258 = memdseg_1_ins.y
* NET 259 = memdseg_1_ins.sff_m
* NET 264 = memdseg_0_ins.sff_s
* NET 265 = memdseg_0_ins.y
* NET 267 = memdseg_0_ins.u
* NET 269 = memdseg_0_ins.sff_m
* NET 270 = memdseg_0_ins.ckr
* NET 271 = a3_x2_sig
* NET 272 = oa22_x2_2_sig
* NET 273 = memdseg_0_ins.nckr
* NET 274 = no4_x1_sig
* NET 277 = not_memuseg[0]
* NET 278 = no3_x1_sig
* NET 281 = not_aux8
* NET 282 = inv_x2_sig
* NET 285 = memumin_0_ins.sff_s
* NET 286 = memumin_0_ins.y
* NET 289 = memumin_0_ins.ckr
* NET 290 = memumin_0_ins.u
* NET 291 = memumin_0_ins.sff_m
* NET 292 = memumin_0_ins.nckr
* NET 294 = aux30
* NET 297 = oa2ao222_x2_3_sig
* NET 299 = memdseg[2]
* NET 300 = a2_x2_5_sig
* NET 303 = not_memdseg[2]
* NET 304 = a2_x2_4_sig
* NET 307 = memdseg[1]
* NET 309 = nxr2_x1_2_sig
* NET 312 = no2_x1_6_sig
* NET 325 = aux28
* NET 337 = mbk_buf_not_aux2
* NET 339 = memdseg[0]
* NET 340 = not_aux2
* NET 343 = mbk_buf_aux3
* NET 345 = memdmin_0_ins.sff_s
* NET 346 = aux3
* NET 347 = memdmin_0_ins.sff_m
* NET 348 = memdmin_0_ins.ckr
* NET 350 = memdmin_0_ins.y
* NET 354 = memdmin_0_ins.nckr
* NET 355 = memdmin_0_ins.u
* NET 363 = oa2a22_x2_sig
* NET 365 = xr2_x1_sig
* NET 369 = aux27
* NET 371 = a2_x2_sig
* NET 377 = memdmin_1_ins.sff_s
* NET 379 = memdmin_1_ins.sff_m
* NET 380 = memdmin_1_ins.ckr
* NET 382 = memdmin_1_ins.y
* NET 384 = memdmin_1_ins.u
* NET 385 = oa2ao222_x2_sig
* NET 386 = memdmin_1_ins.nckr
* NET 389 = nao22_x1_2_sig
* NET 393 = o3_x2_2_sig
* NET 396 = not_aux3
* NET 398 = memumin_3_ins.sff_s
* NET 400 = oa22_x2_sig
* NET 401 = memumin_3_ins.y
* NET 402 = memumin_3_ins.sff_m
* NET 405 = memumin_3_ins.nckr
* NET 406 = memumin_3_ins.ckr
* NET 407 = memumin_3_ins.u
* NET 409 = not_aux6
* NET 412 = a2_x2_3_sig
* NET 413 = aux25
* NET 414 = aux26
* NET 419 = memdmin_2_ins.sff_s
* NET 420 = memdmin_2_ins.y
* NET 422 = memdmin_2_ins.sff_m
* NET 423 = oa2ao222_x2_2_sig
* NET 424 = memdmin_2_ins.u
* NET 426 = memdmin_2_ins.ckr
* NET 427 = memdmin_2_ins.nckr
* NET 446 = not_aux17
* NET 447 = not_memumin[3]
* NET 448 = nao2o22_x1_sig
* NET 451 = not_memumin[2]
* NET 454 = no2_x1_2_sig
* NET 456 = not_aux16
* NET 457 = o3_x2_sig
* NET 459 = not_memumin[1]
* NET 461 = memumin_1_ins.sff_s
* NET 463 = memumin_1_ins.y
* NET 464 = memumin_1_ins.sff_m
* NET 469 = nao22_x1_sig
* NET 470 = memumin_1_ins.nckr
* NET 471 = memumin_1_ins.u
* NET 472 = memumin_1_ins.ckr
* NET 477 = mbk_buf_not_aux8
* NET 478 = nxr2_x1_sig
* NET 479 = no3_x1_3_sig
* NET 480 = aux8
* NET 481 = ao22_x2_sig
* NET 484 = no3_x1_2_sig
* NET 486 = no2_x1_sig
* NET 487 = vss
* NET 488 = rst
* NET 489 = memumin[3]
* NET 490 = not_aux29
* NET 492 = umin[3]
* NET 493 = inv_x2_3_sig
* NET 494 = not_rst
* NET 495 = no2_x1_4_sig
* NET 499 = not_aux14
* NET 500 = no2_x1_3_sig
* NET 503 = umin[2]
* NET 504 = memumin[1]
* NET 506 = umin[1]
* NET 508 = memumin[2]
* NET 510 = memumin_2_ins.sff_s
* NET 511 = memumin_2_ins.y
* NET 513 = memumin_2_ins.sff_m
* NET 514 = oa2ao222_x2_4_sig
* NET 515 = rlj
* NET 516 = memumin_2_ins.nckr
* NET 517 = memumin_2_ins.u
* NET 518 = memumin_2_ins.ckr
* NET 519 = memumin[0]
* NET 521 = umin[0]
* NET 522 = memdmin[2]
* NET 524 = dmin[2]
* NET 525 = dmin[1]
* NET 527 = a2_x2_2_sig
* NET 528 = memdmin[1]
* NET 530 = dmin[0]
* NET 531 = memdmin[0]
* NET 532 = not_memdmin[0]
* NET 534 = vdd
Mtr_01058 525 526 534 534 tp L=1U W=20U AS=40P AD=40P PS=44U PD=44U 
Mtr_01057 534 528 526 534 tp L=1U W=6U AS=12P AD=12P PS=16U PD=16U 
Mtr_01056 527 529 534 534 tp L=1U W=20U AS=40P AD=40P PS=44U PD=44U 
Mtr_01055 534 532 529 534 tp L=1U W=10U AS=20P AD=20P PS=24U PD=24U 
Mtr_01054 529 528 534 534 tp L=1U W=10U AS=20P AD=20P PS=24U PD=24U 
Mtr_01053 521 520 534 534 tp L=1U W=20U AS=40P AD=40P PS=44U PD=44U 
Mtr_01052 534 519 520 534 tp L=1U W=6U AS=12P AD=12P PS=16U PD=16U 
Mtr_01051 530 533 534 534 tp L=1U W=20U AS=40P AD=40P PS=44U PD=44U 
Mtr_01050 534 531 533 534 tp L=1U W=6U AS=12P AD=12P PS=16U PD=16U 
Mtr_01049 532 531 534 534 tp L=1U W=15U AS=30P AD=30P PS=34U PD=34U 
Mtr_01048 493 490 534 534 tp L=1U W=15U AS=30P AD=30P PS=34U PD=34U 
Mtr_01047 492 491 534 534 tp L=1U W=20U AS=40P AD=40P PS=44U PD=44U 
Mtr_01046 534 489 491 534 tp L=1U W=6U AS=12P AD=12P PS=16U PD=16U 
Mtr_01045 507 508 534 534 tp L=1U W=10U AS=20P AD=20P PS=24U PD=24U 
Mtr_01044 510 518 507 534 tp L=1U W=10U AS=20P AD=20P PS=24U PD=24U 
Mtr_01043 511 516 510 534 tp L=1U W=10U AS=20P AD=20P PS=24U PD=24U 
Mtr_01042 513 516 512 534 tp L=1U W=10U AS=20P AD=20P PS=24U PD=24U 
Mtr_01041 512 511 534 534 tp L=1U W=10U AS=20P AD=20P PS=24U PD=24U 
Mtr_01040 509 518 513 534 tp L=1U W=10U AS=20P AD=20P PS=24U PD=24U 
Mtr_01039 516 515 534 534 tp L=1U W=10U AS=20P AD=20P PS=24U PD=24U 
Mtr_01038 534 516 518 534 tp L=1U W=10U AS=20P AD=20P PS=24U PD=24U 
Mtr_01037 517 514 534 534 tp L=1U W=10U AS=20P AD=20P PS=24U PD=24U 
Mtr_01036 534 517 509 534 tp L=1U W=10U AS=20P AD=20P PS=24U PD=24U 
Mtr_01035 534 510 508 534 tp L=1U W=20U AS=40P AD=40P PS=44U PD=44U 
Mtr_01034 508 510 534 534 tp L=1U W=20U AS=40P AD=40P PS=44U PD=44U 
Mtr_01033 511 513 534 534 tp L=1U W=10U AS=20P AD=20P PS=24U PD=24U 
Mtr_01032 506 505 534 534 tp L=1U W=20U AS=40P AD=40P PS=44U PD=44U 
Mtr_01031 534 504 505 534 tp L=1U W=6U AS=12P AD=12P PS=16U PD=16U 
Mtr_01030 524 523 534 534 tp L=1U W=20U AS=40P AD=40P PS=44U PD=44U 
Mtr_01029 534 522 523 534 tp L=1U W=6U AS=12P AD=12P PS=16U PD=16U 
Mtr_01028 501 508 500 534 tp L=1U W=20U AS=40P AD=40P PS=44U PD=44U 
Mtr_01027 534 499 501 534 tp L=1U W=20U AS=40P AD=40P PS=44U PD=44U 
Mtr_01026 503 502 534 534 tp L=1U W=20U AS=40P AD=40P PS=44U PD=44U 
Mtr_01025 534 508 502 534 tp L=1U W=6U AS=12P AD=12P PS=16U PD=16U 
Mtr_01024 514 497 534 534 tp L=1U W=20U AS=40P AD=40P PS=44U PD=44U 
Mtr_01023 496 500 498 534 tp L=1U W=20U AS=40P AD=40P PS=44U PD=44U 
Mtr_01022 496 494 534 534 tp L=1U W=14.5U AS=29P AD=29P PS=33U PD=33U 
Mtr_01021 534 493 496 534 tp L=1U W=14.5U AS=29P AD=29P PS=33U PD=33U 
Mtr_01020 498 495 497 534 tp L=1U W=20U AS=40P AD=40P PS=44U PD=44U 
Mtr_01019 497 504 496 534 tp L=1U W=20U AS=40P AD=40P PS=44U PD=44U 
Mtr_01018 494 488 534 534 tp L=1U W=15U AS=30P AD=30P PS=34U PD=34U 
Mtr_01017 534 477 441 534 tp L=1U W=20U AS=40P AD=40P PS=44U PD=44U 
Mtr_01016 440 478 479 534 tp L=1U W=20U AS=40P AD=40P PS=44U PD=44U 
Mtr_01015 441 486 440 534 tp L=1U W=20U AS=40P AD=40P PS=44U PD=44U 
Mtr_01014 445 532 486 534 tp L=1U W=20U AS=40P AD=40P PS=44U PD=44U 
Mtr_01013 534 528 445 534 tp L=1U W=20U AS=40P AD=40P PS=44U PD=44U 
Mtr_01012 534 482 481 534 tp L=1U W=20U AS=40P AD=40P PS=44U PD=44U 
Mtr_01011 482 480 534 534 tp L=1U W=10U AS=20P AD=20P PS=24U PD=24U 
Mtr_01010 534 484 442 534 tp L=1U W=10U AS=20P AD=20P PS=24U PD=24U 
Mtr_01009 442 527 482 534 tp L=1U W=10U AS=20P AD=20P PS=24U PD=24U 
Mtr_01008 534 522 443 534 tp L=1U W=20U AS=40P AD=40P PS=44U PD=44U 
Mtr_01007 444 532 484 534 tp L=1U W=20U AS=40P AD=40P PS=44U PD=44U 
Mtr_01006 443 528 444 534 tp L=1U W=20U AS=40P AD=40P PS=44U PD=44U 
Mtr_01005 534 474 439 534 tp L=1U W=20U AS=40P AD=40P PS=44U PD=44U 
Mtr_01004 439 476 478 534 tp L=1U W=20U AS=40P AD=40P PS=44U PD=44U 
Mtr_01003 439 531 534 534 tp L=1U W=20U AS=40P AD=40P PS=44U PD=44U 
Mtr_01002 478 522 439 534 tp L=1U W=20U AS=40P AD=40P PS=44U PD=44U 
Mtr_01001 534 531 476 534 tp L=1U W=10U AS=20P AD=20P PS=24U PD=24U 
Mtr_01000 474 522 534 534 tp L=1U W=10U AS=20P AD=20P PS=24U PD=24U 
Mtr_00999 534 504 434 534 tp L=1U W=15U AS=30P AD=30P PS=34U PD=34U 
Mtr_00998 434 499 433 534 tp L=1U W=15U AS=30P AD=30P PS=34U PD=34U 
Mtr_00997 433 454 455 534 tp L=1U W=15U AS=30P AD=30P PS=34U PD=34U 
Mtr_00996 457 455 534 534 tp L=1U W=20U AS=40P AD=40P PS=44U PD=44U 
Mtr_00995 534 457 469 534 tp L=1U W=20U AS=40P AD=40P PS=44U PD=44U 
Mtr_00994 435 456 534 534 tp L=1U W=20U AS=40P AD=40P PS=44U PD=44U 
Mtr_00993 469 459 435 534 tp L=1U W=20U AS=40P AD=40P PS=44U PD=44U 
Mtr_00992 436 504 534 534 tp L=1U W=10U AS=20P AD=20P PS=24U PD=24U 
Mtr_00991 461 472 436 534 tp L=1U W=10U AS=20P AD=20P PS=24U PD=24U 
Mtr_00990 463 470 461 534 tp L=1U W=10U AS=20P AD=20P PS=24U PD=24U 
Mtr_00989 464 470 438 534 tp L=1U W=10U AS=20P AD=20P PS=24U PD=24U 
Mtr_00988 438 463 534 534 tp L=1U W=10U AS=20P AD=20P PS=24U PD=24U 
Mtr_00987 437 472 464 534 tp L=1U W=10U AS=20P AD=20P PS=24U PD=24U 
Mtr_00986 470 515 534 534 tp L=1U W=10U AS=20P AD=20P PS=24U PD=24U 
Mtr_00985 534 470 472 534 tp L=1U W=10U AS=20P AD=20P PS=24U PD=24U 
Mtr_00984 471 469 534 534 tp L=1U W=10U AS=20P AD=20P PS=24U PD=24U 
Mtr_00983 534 471 437 534 tp L=1U W=10U AS=20P AD=20P PS=24U PD=24U 
Mtr_00982 534 461 504 534 tp L=1U W=20U AS=40P AD=40P PS=44U PD=44U 
Mtr_00981 504 461 534 534 tp L=1U W=20U AS=40P AD=40P PS=44U PD=44U 
Mtr_00980 463 464 534 534 tp L=1U W=10U AS=20P AD=20P PS=24U PD=24U 
Mtr_00979 428 447 454 534 tp L=1U W=20U AS=40P AD=40P PS=44U PD=44U 
Mtr_00978 534 508 428 534 tp L=1U W=20U AS=40P AD=40P PS=44U PD=44U 
Mtr_00977 431 451 450 534 tp L=1U W=15U AS=30P AD=30P PS=34U PD=34U 
Mtr_00976 534 504 431 534 tp L=1U W=15U AS=30P AD=30P PS=34U PD=34U 
Mtr_00975 490 450 534 534 tp L=1U W=20U AS=40P AD=40P PS=44U PD=44U 
Mtr_00974 432 456 495 534 tp L=1U W=20U AS=40P AD=40P PS=44U PD=44U 
Mtr_00973 534 451 432 534 tp L=1U W=20U AS=40P AD=40P PS=44U PD=44U 
Mtr_00972 448 456 430 534 tp L=1U W=20U AS=40P AD=40P PS=44U PD=44U 
Mtr_00971 430 447 534 534 tp L=1U W=20U AS=40P AD=40P PS=44U PD=44U 
Mtr_00970 429 446 448 534 tp L=1U W=20U AS=40P AD=40P PS=44U PD=44U 
Mtr_00969 534 490 429 534 tp L=1U W=20U AS=40P AD=40P PS=44U PD=44U 
Mtr_00968 447 489 534 534 tp L=1U W=15U AS=30P AD=30P PS=34U PD=34U 
Mtr_00967 459 504 534 534 tp L=1U W=15U AS=30P AD=30P PS=34U PD=34U 
Mtr_00966 418 522 534 534 tp L=1U W=10U AS=20P AD=20P PS=24U PD=24U 
Mtr_00965 419 426 418 534 tp L=1U W=10U AS=20P AD=20P PS=24U PD=24U 
Mtr_00964 420 427 419 534 tp L=1U W=10U AS=20P AD=20P PS=24U PD=24U 
Mtr_00963 422 427 421 534 tp L=1U W=10U AS=20P AD=20P PS=24U PD=24U 
Mtr_00962 421 420 534 534 tp L=1U W=10U AS=20P AD=20P PS=24U PD=24U 
Mtr_00961 425 426 422 534 tp L=1U W=10U AS=20P AD=20P PS=24U PD=24U 
Mtr_00960 427 515 534 534 tp L=1U W=10U AS=20P AD=20P PS=24U PD=24U 
Mtr_00959 534 427 426 534 tp L=1U W=10U AS=20P AD=20P PS=24U PD=24U 
Mtr_00958 424 423 534 534 tp L=1U W=10U AS=20P AD=20P PS=24U PD=24U 
Mtr_00957 534 424 425 534 tp L=1U W=10U AS=20P AD=20P PS=24U PD=24U 
Mtr_00956 534 419 522 534 tp L=1U W=20U AS=40P AD=40P PS=44U PD=44U 
Mtr_00955 522 419 534 534 tp L=1U W=20U AS=40P AD=40P PS=44U PD=44U 
Mtr_00954 420 422 534 534 tp L=1U W=10U AS=20P AD=20P PS=24U PD=24U 
Mtr_00953 412 411 534 534 tp L=1U W=20U AS=40P AD=40P PS=44U PD=44U 
Mtr_00952 534 522 411 534 tp L=1U W=10U AS=20P AD=20P PS=24U PD=24U 
Mtr_00951 411 477 534 534 tp L=1U W=10U AS=20P AD=20P PS=24U PD=24U 
Mtr_00950 423 417 534 534 tp L=1U W=20U AS=40P AD=40P PS=44U PD=44U 
Mtr_00949 415 412 416 534 tp L=1U W=20U AS=40P AD=40P PS=44U PD=44U 
Mtr_00948 415 413 534 534 tp L=1U W=14.5U AS=29P AD=29P PS=33U PD=33U 
Mtr_00947 534 522 415 534 tp L=1U W=14.5U AS=29P AD=29P PS=33U PD=33U 
Mtr_00946 416 479 417 534 tp L=1U W=20U AS=40P AD=40P PS=44U PD=44U 
Mtr_00945 417 414 415 534 tp L=1U W=20U AS=40P AD=40P PS=44U PD=44U 
Mtr_00944 409 397 534 534 tp L=1U W=20U AS=40P AD=40P PS=44U PD=44U 
Mtr_00943 397 396 534 534 tp L=1U W=10U AS=20P AD=20P PS=24U PD=24U 
Mtr_00942 534 489 397 534 tp L=1U W=10U AS=20P AD=20P PS=24U PD=24U 
Mtr_00941 397 451 534 534 tp L=1U W=10U AS=20P AD=20P PS=24U PD=24U 
Mtr_00940 534 459 397 534 tp L=1U W=10U AS=20P AD=20P PS=24U PD=24U 
Mtr_00939 410 409 413 534 tp L=1U W=20U AS=40P AD=40P PS=44U PD=44U 
Mtr_00938 534 488 410 534 tp L=1U W=20U AS=40P AD=40P PS=44U PD=44U 
Mtr_00937 414 408 534 534 tp L=1U W=20U AS=40P AD=40P PS=44U PD=44U 
Mtr_00936 534 409 408 534 tp L=1U W=10U AS=20P AD=20P PS=24U PD=24U 
Mtr_00935 408 494 534 534 tp L=1U W=10U AS=20P AD=20P PS=24U PD=24U 
Mtr_00934 451 508 534 534 tp L=1U W=15U AS=30P AD=30P PS=34U PD=34U 
Mtr_00933 534 390 400 534 tp L=1U W=20U AS=40P AD=40P PS=44U PD=44U 
Mtr_00932 391 448 534 534 tp L=1U W=10U AS=20P AD=20P PS=24U PD=24U 
Mtr_00931 391 389 390 534 tp L=1U W=10U AS=20P AD=20P PS=24U PD=24U 
Mtr_00930 390 504 391 534 tp L=1U W=10U AS=20P AD=20P PS=24U PD=24U 
Mtr_00929 534 489 394 534 tp L=1U W=15U AS=30P AD=30P PS=34U PD=34U 
Mtr_00928 394 499 395 534 tp L=1U W=15U AS=30P AD=30P PS=34U PD=34U 
Mtr_00927 395 451 392 534 tp L=1U W=15U AS=30P AD=30P PS=34U PD=34U 
Mtr_00926 393 392 534 534 tp L=1U W=20U AS=40P AD=40P PS=44U PD=44U 
Mtr_00925 399 489 534 534 tp L=1U W=10U AS=20P AD=20P PS=24U PD=24U 
Mtr_00924 398 406 399 534 tp L=1U W=10U AS=20P AD=20P PS=24U PD=24U 
Mtr_00923 401 405 398 534 tp L=1U W=10U AS=20P AD=20P PS=24U PD=24U 
Mtr_00922 402 405 404 534 tp L=1U W=10U AS=20P AD=20P PS=24U PD=24U 
Mtr_00921 404 401 534 534 tp L=1U W=10U AS=20P AD=20P PS=24U PD=24U 
Mtr_00920 403 406 402 534 tp L=1U W=10U AS=20P AD=20P PS=24U PD=24U 
Mtr_00919 405 515 534 534 tp L=1U W=10U AS=20P AD=20P PS=24U PD=24U 
Mtr_00918 534 405 406 534 tp L=1U W=10U AS=20P AD=20P PS=24U PD=24U 
Mtr_00917 407 400 534 534 tp L=1U W=10U AS=20P AD=20P PS=24U PD=24U 
Mtr_00916 534 407 403 534 tp L=1U W=10U AS=20P AD=20P PS=24U PD=24U 
Mtr_00915 534 398 489 534 tp L=1U W=20U AS=40P AD=40P PS=44U PD=44U 
Mtr_00914 489 398 534 534 tp L=1U W=20U AS=40P AD=40P PS=44U PD=44U 
Mtr_00913 401 402 534 534 tp L=1U W=10U AS=20P AD=20P PS=24U PD=24U 
Mtr_00912 446 494 534 534 tp L=1U W=10U AS=20P AD=20P PS=24U PD=24U 
Mtr_00911 534 489 446 534 tp L=1U W=10U AS=20P AD=20P PS=24U PD=24U 
Mtr_00910 534 393 389 534 tp L=1U W=20U AS=40P AD=40P PS=44U PD=44U 
Mtr_00909 388 508 534 534 tp L=1U W=20U AS=40P AD=40P PS=44U PD=44U 
Mtr_00908 389 446 388 534 tp L=1U W=20U AS=40P AD=40P PS=44U PD=44U 
Mtr_00907 371 370 534 534 tp L=1U W=20U AS=40P AD=40P PS=44U PD=44U 
Mtr_00906 534 528 370 534 tp L=1U W=10U AS=20P AD=20P PS=24U PD=24U 
Mtr_00905 370 477 534 534 tp L=1U W=10U AS=20P AD=20P PS=24U PD=24U 
Mtr_00904 330 528 534 534 tp L=1U W=10U AS=20P AD=20P PS=24U PD=24U 
Mtr_00903 377 380 330 534 tp L=1U W=10U AS=20P AD=20P PS=24U PD=24U 
Mtr_00902 382 386 377 534 tp L=1U W=10U AS=20P AD=20P PS=24U PD=24U 
Mtr_00901 379 386 332 534 tp L=1U W=10U AS=20P AD=20P PS=24U PD=24U 
Mtr_00900 332 382 534 534 tp L=1U W=10U AS=20P AD=20P PS=24U PD=24U 
Mtr_00899 333 380 379 534 tp L=1U W=10U AS=20P AD=20P PS=24U PD=24U 
Mtr_00898 386 515 534 534 tp L=1U W=10U AS=20P AD=20P PS=24U PD=24U 
Mtr_00897 534 386 380 534 tp L=1U W=10U AS=20P AD=20P PS=24U PD=24U 
Mtr_00896 384 385 534 534 tp L=1U W=10U AS=20P AD=20P PS=24U PD=24U 
Mtr_00895 534 384 333 534 tp L=1U W=10U AS=20P AD=20P PS=24U PD=24U 
Mtr_00894 534 377 528 534 tp L=1U W=20U AS=40P AD=40P PS=44U PD=44U 
Mtr_00893 528 377 534 534 tp L=1U W=20U AS=40P AD=40P PS=44U PD=44U 
Mtr_00892 382 379 534 534 tp L=1U W=10U AS=20P AD=20P PS=24U PD=24U 
Mtr_00891 323 365 362 534 tp L=1U W=10U AS=20P AD=20P PS=24U PD=24U 
Mtr_00890 323 413 534 534 tp L=1U W=10U AS=20P AD=20P PS=24U PD=24U 
Mtr_00889 534 531 323 534 tp L=1U W=10U AS=20P AD=20P PS=24U PD=24U 
Mtr_00888 362 414 323 534 tp L=1U W=10U AS=20P AD=20P PS=24U PD=24U 
Mtr_00887 363 362 534 534 tp L=1U W=20U AS=40P AD=40P PS=44U PD=44U 
Mtr_00886 316 531 534 534 tp L=1U W=10U AS=20P AD=20P PS=24U PD=24U 
Mtr_00885 345 348 316 534 tp L=1U W=10U AS=20P AD=20P PS=24U PD=24U 
Mtr_00884 350 354 345 534 tp L=1U W=10U AS=20P AD=20P PS=24U PD=24U 
Mtr_00883 347 354 315 534 tp L=1U W=10U AS=20P AD=20P PS=24U PD=24U 
Mtr_00882 315 350 534 534 tp L=1U W=10U AS=20P AD=20P PS=24U PD=24U 
Mtr_00881 318 348 347 534 tp L=1U W=10U AS=20P AD=20P PS=24U PD=24U 
Mtr_00880 354 515 534 534 tp L=1U W=10U AS=20P AD=20P PS=24U PD=24U 
Mtr_00879 534 354 348 534 tp L=1U W=10U AS=20P AD=20P PS=24U PD=24U 
Mtr_00878 355 363 534 534 tp L=1U W=10U AS=20P AD=20P PS=24U PD=24U 
Mtr_00877 534 355 318 534 tp L=1U W=10U AS=20P AD=20P PS=24U PD=24U 
Mtr_00876 534 345 531 534 tp L=1U W=20U AS=40P AD=40P PS=44U PD=44U 
Mtr_00875 531 345 534 534 tp L=1U W=20U AS=40P AD=40P PS=44U PD=44U 
Mtr_00874 350 347 534 534 tp L=1U W=10U AS=20P AD=20P PS=24U PD=24U 
Mtr_00873 385 373 534 534 tp L=1U W=20U AS=40P AD=40P PS=44U PD=44U 
Mtr_00872 329 371 326 534 tp L=1U W=20U AS=40P AD=40P PS=44U PD=44U 
Mtr_00871 329 413 534 534 tp L=1U W=14.5U AS=29P AD=29P PS=33U PD=33U 
Mtr_00870 534 528 329 534 tp L=1U W=14.5U AS=29P AD=29P PS=33U PD=33U 
Mtr_00869 326 481 373 534 tp L=1U W=20U AS=40P AD=40P PS=44U PD=44U 
Mtr_00868 373 414 329 534 tp L=1U W=20U AS=40P AD=40P PS=44U PD=44U 
Mtr_00867 534 494 456 534 tp L=1U W=20U AS=40P AD=40P PS=44U PD=44U 
Mtr_00866 314 477 534 534 tp L=1U W=20U AS=40P AD=40P PS=44U PD=44U 
Mtr_00865 456 343 314 534 tp L=1U W=20U AS=40P AD=40P PS=44U PD=44U 
Mtr_00864 369 367 534 534 tp L=1U W=20U AS=40P AD=40P PS=44U PD=44U 
Mtr_00863 534 494 367 534 tp L=1U W=10U AS=20P AD=20P PS=24U PD=24U 
Mtr_00862 367 396 534 534 tp L=1U W=10U AS=20P AD=20P PS=24U PD=24U 
Mtr_00861 358 531 534 534 tp L=1U W=10U AS=20P AD=20P PS=24U PD=24U 
Mtr_00860 534 480 357 534 tp L=1U W=10U AS=20P AD=20P PS=24U PD=24U 
Mtr_00859 365 358 320 534 tp L=1U W=20U AS=40P AD=40P PS=44U PD=44U 
Mtr_00858 320 480 534 534 tp L=1U W=20U AS=40P AD=40P PS=44U PD=44U 
Mtr_00857 320 357 365 534 tp L=1U W=20U AS=40P AD=40P PS=44U PD=44U 
Mtr_00856 534 531 320 534 tp L=1U W=20U AS=40P AD=40P PS=44U PD=44U 
Mtr_00855 396 346 534 534 tp L=1U W=15U AS=30P AD=30P PS=34U PD=34U 
Mtr_00854 337 335 534 534 tp L=1U W=20U AS=40P AD=40P PS=44U PD=44U 
Mtr_00853 534 340 335 534 tp L=1U W=6U AS=12P AD=12P PS=16U PD=16U 
Mtr_00852 311 337 312 534 tp L=1U W=20U AS=40P AD=40P PS=44U PD=44U 
Mtr_00851 534 488 311 534 tp L=1U W=20U AS=40P AD=40P PS=44U PD=44U 
Mtr_00850 324 396 325 534 tp L=1U W=20U AS=40P AD=40P PS=44U PD=44U 
Mtr_00849 534 488 324 534 tp L=1U W=20U AS=40P AD=40P PS=44U PD=44U 
Mtr_00848 343 338 534 534 tp L=1U W=20U AS=40P AD=40P PS=44U PD=44U 
Mtr_00847 534 346 338 534 tp L=1U W=6U AS=12P AD=12P PS=16U PD=16U 
Mtr_00846 346 339 534 534 tp L=1U W=10U AS=20P AD=20P PS=24U PD=24U 
Mtr_00845 534 340 346 534 tp L=1U W=10U AS=20P AD=20P PS=24U PD=24U 
Mtr_00844 284 519 534 534 tp L=1U W=10U AS=20P AD=20P PS=24U PD=24U 
Mtr_00843 285 289 284 534 tp L=1U W=10U AS=20P AD=20P PS=24U PD=24U 
Mtr_00842 286 292 285 534 tp L=1U W=10U AS=20P AD=20P PS=24U PD=24U 
Mtr_00841 291 292 287 534 tp L=1U W=10U AS=20P AD=20P PS=24U PD=24U 
Mtr_00840 287 286 534 534 tp L=1U W=10U AS=20P AD=20P PS=24U PD=24U 
Mtr_00839 288 289 291 534 tp L=1U W=10U AS=20P AD=20P PS=24U PD=24U 
Mtr_00838 292 515 534 534 tp L=1U W=10U AS=20P AD=20P PS=24U PD=24U 
Mtr_00837 534 292 289 534 tp L=1U W=10U AS=20P AD=20P PS=24U PD=24U 
Mtr_00836 290 297 534 534 tp L=1U W=10U AS=20P AD=20P PS=24U PD=24U 
Mtr_00835 534 290 288 534 tp L=1U W=10U AS=20P AD=20P PS=24U PD=24U 
Mtr_00834 534 285 519 534 tp L=1U W=20U AS=40P AD=40P PS=44U PD=44U 
Mtr_00833 519 285 534 534 tp L=1U W=20U AS=40P AD=40P PS=44U PD=44U 
Mtr_00832 286 291 534 534 tp L=1U W=10U AS=20P AD=20P PS=24U PD=24U 
Mtr_00831 297 296 534 534 tp L=1U W=20U AS=40P AD=40P PS=44U PD=44U 
Mtr_00830 302 304 298 534 tp L=1U W=20U AS=40P AD=40P PS=44U PD=44U 
Mtr_00829 302 325 534 534 tp L=1U W=14.5U AS=29P AD=29P PS=33U PD=33U 
Mtr_00828 534 519 302 534 tp L=1U W=14.5U AS=29P AD=29P PS=33U PD=33U 
Mtr_00827 298 300 296 534 tp L=1U W=20U AS=40P AD=40P PS=44U PD=44U 
Mtr_00826 296 369 302 534 tp L=1U W=20U AS=40P AD=40P PS=44U PD=44U 
Mtr_00825 534 306 310 534 tp L=1U W=20U AS=40P AD=40P PS=44U PD=44U 
Mtr_00824 310 308 309 534 tp L=1U W=20U AS=40P AD=40P PS=44U PD=44U 
Mtr_00823 310 519 534 534 tp L=1U W=20U AS=40P AD=40P PS=44U PD=44U 
Mtr_00822 309 307 310 534 tp L=1U W=20U AS=40P AD=40P PS=44U PD=44U 
Mtr_00821 534 519 308 534 tp L=1U W=10U AS=20P AD=20P PS=24U PD=24U 
Mtr_00820 306 307 534 534 tp L=1U W=10U AS=20P AD=20P PS=24U PD=24U 
Mtr_00819 304 305 534 534 tp L=1U W=20U AS=40P AD=40P PS=44U PD=44U 
Mtr_00818 534 303 305 534 tp L=1U W=10U AS=20P AD=20P PS=24U PD=24U 
Mtr_00817 305 519 534 534 tp L=1U W=10U AS=20P AD=20P PS=24U PD=24U 
Mtr_00816 293 369 534 534 tp L=1U W=10U AS=20P AD=20P PS=24U PD=24U 
Mtr_00815 534 293 295 534 tp L=1U W=20U AS=40P AD=40P PS=44U PD=44U 
Mtr_00814 295 299 294 534 tp L=1U W=20U AS=40P AD=40P PS=44U PD=44U 
Mtr_00813 534 488 280 534 tp L=1U W=20U AS=40P AD=40P PS=44U PD=44U 
Mtr_00812 279 277 278 534 tp L=1U W=20U AS=40P AD=40P PS=44U PD=44U 
Mtr_00811 280 282 279 534 tp L=1U W=20U AS=40P AD=40P PS=44U PD=44U 
Mtr_00810 477 283 534 534 tp L=1U W=20U AS=40P AD=40P PS=44U PD=44U 
Mtr_00809 534 281 283 534 tp L=1U W=6U AS=12P AD=12P PS=16U PD=16U 
Mtr_00808 499 278 534 534 tp L=1U W=10U AS=20P AD=20P PS=24U PD=24U 
Mtr_00807 534 274 499 534 tp L=1U W=10U AS=20P AD=20P PS=24U PD=24U 
Mtr_00806 300 301 534 534 tp L=1U W=20U AS=40P AD=40P PS=44U PD=44U 
Mtr_00805 534 299 301 534 tp L=1U W=10U AS=20P AD=20P PS=24U PD=24U 
Mtr_00804 301 309 534 534 tp L=1U W=10U AS=20P AD=20P PS=24U PD=24U 
Mtr_00803 282 339 534 534 tp L=1U W=15U AS=30P AD=30P PS=34U PD=34U 
Mtr_00802 263 339 534 534 tp L=1U W=10U AS=20P AD=20P PS=24U PD=24U 
Mtr_00801 264 270 263 534 tp L=1U W=10U AS=20P AD=20P PS=24U PD=24U 
Mtr_00800 265 273 264 534 tp L=1U W=10U AS=20P AD=20P PS=24U PD=24U 
Mtr_00799 269 273 266 534 tp L=1U W=10U AS=20P AD=20P PS=24U PD=24U 
Mtr_00798 266 265 534 534 tp L=1U W=10U AS=20P AD=20P PS=24U PD=24U 
Mtr_00797 268 270 269 534 tp L=1U W=10U AS=20P AD=20P PS=24U PD=24U 
Mtr_00796 273 515 534 534 tp L=1U W=10U AS=20P AD=20P PS=24U PD=24U 
Mtr_00795 534 273 270 534 tp L=1U W=10U AS=20P AD=20P PS=24U PD=24U 
Mtr_00794 267 272 534 534 tp L=1U W=10U AS=20P AD=20P PS=24U PD=24U 
Mtr_00793 534 267 268 534 tp L=1U W=10U AS=20P AD=20P PS=24U PD=24U 
Mtr_00792 534 264 339 534 tp L=1U W=20U AS=40P AD=40P PS=44U PD=44U 
Mtr_00791 339 264 534 534 tp L=1U W=20U AS=40P AD=40P PS=44U PD=44U 
Mtr_00790 265 269 534 534 tp L=1U W=10U AS=20P AD=20P PS=24U PD=24U 
Mtr_00789 534 275 272 534 tp L=1U W=20U AS=40P AD=40P PS=44U PD=44U 
Mtr_00788 276 271 534 534 tp L=1U W=10U AS=20P AD=20P PS=24U PD=24U 
Mtr_00787 276 339 275 534 tp L=1U W=10U AS=20P AD=20P PS=24U PD=24U 
Mtr_00786 275 312 276 534 tp L=1U W=10U AS=20P AD=20P PS=24U PD=24U 
Mtr_00785 281 480 534 534 tp L=1U W=15U AS=30P AD=30P PS=34U PD=34U 
Mtr_00784 188 307 534 534 tp L=1U W=10U AS=20P AD=20P PS=24U PD=24U 
Mtr_00783 257 234 188 534 tp L=1U W=10U AS=20P AD=20P PS=24U PD=24U 
Mtr_00782 258 235 257 534 tp L=1U W=10U AS=20P AD=20P PS=24U PD=24U 
Mtr_00781 259 235 230 534 tp L=1U W=10U AS=20P AD=20P PS=24U PD=24U 
Mtr_00780 230 258 534 534 tp L=1U W=10U AS=20P AD=20P PS=24U PD=24U 
Mtr_00779 229 234 259 534 tp L=1U W=10U AS=20P AD=20P PS=24U PD=24U 
Mtr_00778 235 515 534 534 tp L=1U W=10U AS=20P AD=20P PS=24U PD=24U 
Mtr_00777 534 235 234 534 tp L=1U W=10U AS=20P AD=20P PS=24U PD=24U 
Mtr_00776 233 232 534 534 tp L=1U W=10U AS=20P AD=20P PS=24U PD=24U 
Mtr_00775 534 233 229 534 tp L=1U W=10U AS=20P AD=20P PS=24U PD=24U 
Mtr_00774 534 257 307 534 tp L=1U W=20U AS=40P AD=40P PS=44U PD=44U 
Mtr_00773 307 257 534 534 tp L=1U W=20U AS=40P AD=40P PS=44U PD=44U 
Mtr_00772 258 259 534 534 tp L=1U W=10U AS=20P AD=20P PS=24U PD=24U 
Mtr_00771 534 252 232 534 tp L=1U W=20U AS=40P AD=40P PS=44U PD=44U 
Mtr_00770 224 325 534 534 tp L=1U W=10U AS=20P AD=20P PS=24U PD=24U 
Mtr_00769 254 307 534 534 tp L=1U W=10U AS=20P AD=20P PS=24U PD=24U 
Mtr_00768 225 307 252 534 tp L=1U W=10U AS=20P AD=20P PS=24U PD=24U 
Mtr_00767 252 254 224 534 tp L=1U W=10U AS=20P AD=20P PS=24U PD=24U 
Mtr_00766 534 294 225 534 tp L=1U W=10U AS=20P AD=20P PS=24U PD=24U 
Mtr_00765 223 307 251 534 tp L=1U W=10U AS=20P AD=20P PS=24U PD=24U 
Mtr_00764 223 325 534 534 tp L=1U W=10U AS=20P AD=20P PS=24U PD=24U 
Mtr_00763 534 299 223 534 tp L=1U W=10U AS=20P AD=20P PS=24U PD=24U 
Mtr_00762 251 294 223 534 tp L=1U W=10U AS=20P AD=20P PS=24U PD=24U 
Mtr_00761 220 251 534 534 tp L=1U W=20U AS=40P AD=40P PS=44U PD=44U 
Mtr_00760 172 299 534 534 tp L=1U W=10U AS=20P AD=20P PS=24U PD=24U 
Mtr_00759 245 216 172 534 tp L=1U W=10U AS=20P AD=20P PS=24U PD=24U 
Mtr_00758 246 219 245 534 tp L=1U W=10U AS=20P AD=20P PS=24U PD=24U 
Mtr_00757 247 219 212 534 tp L=1U W=10U AS=20P AD=20P PS=24U PD=24U 
Mtr_00756 212 246 534 534 tp L=1U W=10U AS=20P AD=20P PS=24U PD=24U 
Mtr_00755 215 216 247 534 tp L=1U W=10U AS=20P AD=20P PS=24U PD=24U 
Mtr_00754 219 515 534 534 tp L=1U W=10U AS=20P AD=20P PS=24U PD=24U 
Mtr_00753 534 219 216 534 tp L=1U W=10U AS=20P AD=20P PS=24U PD=24U 
Mtr_00752 217 220 534 534 tp L=1U W=10U AS=20P AD=20P PS=24U PD=24U 
Mtr_00751 534 217 215 534 tp L=1U W=10U AS=20P AD=20P PS=24U PD=24U 
Mtr_00750 534 245 299 534 tp L=1U W=20U AS=40P AD=40P PS=44U PD=44U 
Mtr_00749 299 245 534 534 tp L=1U W=20U AS=40P AD=40P PS=44U PD=44U 
Mtr_00748 246 247 534 534 tp L=1U W=10U AS=20P AD=20P PS=24U PD=24U 
Mtr_00747 534 339 196 534 tp L=1U W=20U AS=40P AD=40P PS=44U PD=44U 
Mtr_00746 195 277 197 534 tp L=1U W=20U AS=40P AD=40P PS=44U PD=44U 
Mtr_00745 196 488 195 534 tp L=1U W=20U AS=40P AD=40P PS=44U PD=44U 
Mtr_00744 534 197 240 534 tp L=1U W=10U AS=20P AD=20P PS=24U PD=24U 
Mtr_00743 271 240 534 534 tp L=1U W=20U AS=40P AD=40P PS=44U PD=44U 
Mtr_00742 534 210 240 534 tp L=1U W=10U AS=20P AD=20P PS=24U PD=24U 
Mtr_00741 240 202 534 534 tp L=1U W=10U AS=20P AD=20P PS=24U PD=24U 
Mtr_00740 534 281 207 534 tp L=1U W=20U AS=40P AD=40P PS=44U PD=44U 
Mtr_00739 208 205 209 534 tp L=1U W=20U AS=40P AD=40P PS=44U PD=44U 
Mtr_00738 209 206 274 534 tp L=1U W=20U AS=40P AD=40P PS=44U PD=44U 
Mtr_00737 207 204 208 534 tp L=1U W=20U AS=40P AD=40P PS=44U PD=44U 
Mtr_00736 210 244 534 534 tp L=1U W=20U AS=40P AD=40P PS=44U PD=44U 
Mtr_00735 534 211 244 534 tp L=1U W=6U AS=12P AD=12P PS=16U PD=16U 
Mtr_00734 192 205 534 534 tp L=1U W=15U AS=30P AD=30P PS=34U PD=34U 
Mtr_00733 534 203 237 534 tp L=1U W=10U AS=20P AD=20P PS=24U PD=24U 
Mtr_00732 340 237 534 534 tp L=1U W=20U AS=40P AD=40P PS=44U PD=44U 
Mtr_00731 534 201 237 534 tp L=1U W=10U AS=20P AD=20P PS=24U PD=24U 
Mtr_00730 237 192 534 534 tp L=1U W=10U AS=20P AD=20P PS=24U PD=24U 
Mtr_00729 206 201 534 534 tp L=1U W=15U AS=30P AD=30P PS=34U PD=34U 
Mtr_00728 198 206 202 534 tp L=1U W=20U AS=40P AD=40P PS=44U PD=44U 
Mtr_00727 534 205 198 534 tp L=1U W=20U AS=40P AD=40P PS=44U PD=44U 
Mtr_00726 534 303 190 534 tp L=1U W=20U AS=40P AD=40P PS=44U PD=44U 
Mtr_00725 189 307 480 534 tp L=1U W=20U AS=40P AD=40P PS=44U PD=44U 
Mtr_00724 190 191 189 534 tp L=1U W=20U AS=40P AD=40P PS=44U PD=44U 
Mtr_00723 203 170 534 534 tp L=1U W=20U AS=40P AD=40P PS=44U PD=44U 
Mtr_00722 534 211 170 534 tp L=1U W=10U AS=20P AD=20P PS=24U PD=24U 
Mtr_00721 170 182 534 534 tp L=1U W=10U AS=20P AD=20P PS=24U PD=24U 
Mtr_00720 185 184 534 534 tp L=1U W=20U AS=40P AD=40P PS=44U PD=44U 
Mtr_00719 534 299 184 534 tp L=1U W=6U AS=12P AD=12P PS=16U PD=16U 
Mtr_00718 303 299 534 534 tp L=1U W=15U AS=30P AD=30P PS=34U PD=34U 